SOLUTION_RAW                 116 Solution after simulation 1.
  -temp                      25
  -pressure                  1
  -potential                 0
  -total_h                   22.135866319451
  -total_o                   11.067933159726
  -cb                        -3.3000496862651e-06
  -density                   0.99709662862304
  -totals
    Ca                       5.4661394348342e-11
    Cl                       0.00023999992991474
    K                        0.00013264529752482
    N                        3.5126647678132e-16
    Na                       0.00010405447338122
  -pH                        6.9969039934961
  -pe                        10.867064942865
  -mu                        0.0011954704577042
  -ah2o                      0.99995935402242
  -mass_water                0.19942221909416
  -soln_vol                  0.19999663470374
  -total_alkalinity          1.5256118862512e-16
  -activities
    Ca                       -9.6285946970715
    Cl                       -2.9364296087444
    E                        -10.867064942865
    H(0)                     -38.878021034011
    K                        -3.1939753066772
    N(-3)                    -52.817168772593
    N(0)                     -15.45936701626
    N(3)                     -22.146332988931
    N(5)                     -14.988329607603
    Na                       -3.2992195355322
    O(0)                     -14.623993237343
  -gammas
  -species_map
    28 3.5146807573342e-10
    34 5.1651685997996e-16
    63 0.0012000198615129
    118 1.0418308337639e-07
    119 1.3202153938505e-39
    121 55.340596882045
    178 0.00066277717158964
    209 4.0808822480025e-16
    210 0
    211 0
    214 8.7220133420671e-23
    215 1.2546915314172e-15
    216 0.00052080000504559
    221 5.0342043464485e-21
    225 2.3682257839408e-15
    226 1.0418308362268e-07
  -log_gamma_map
    28 -0.066549864590161
    34 -0.016862142307769
    63 -0.016915823545974
    118 -0.015998987921502
    119 0.00011954704577042
    121 0
    178 -0.016942264789757
    209 0.00011954704577042
    210 0.00011954704577042
    211 -0.017147507987254
    214 -0.017053338083541
    215 -0.017053338083541
    216 -0.016755391045938
    221 0.00011954704577042
    225 0.00011954704577042
    226 -0.016960196846622
  -log_molalities_map
    28 -9.452816328473
    34 -15.285617709942
    63 -2.9195137780226
    118 -6.9809050055746
    119 -38.878057419767
    121 -30
    178 -3.1773346707784
    209 -15.387948148547
    210 -54.993160051689
    211 -52.728577595342
    214 -22.058085465454
    215 -14.900165245414
    216 -3.2820312323643
    221 -20.296771371851
    225 -14.624279106967
    226 -6.9809050045479
EXCHANGE_RAW                 116 Exchange assemblage after simulation 1.
  # EXCHANGE_MODIFY candidate identifiers #
  -exchange_gammas           1
  -component                 X
    # EXCHANGE_MODIFY candidate identifiers #
    -totals
      Ca                     1.6466855649701e-08
      H                      1.6322051401243e-53
      K                      0.00019015387606353
      N                      4.0805128503108e-54
      Na                     2.9813201874059e-05
      X                      0.00022000001164889
    -charge_balance          0
    -la                      2.4140171493815
    -phase_proportion        0
    -formula_z               0
  # EXCHANGE_MODIFY candidates with new_def=true #
  -new_def                   0
  -solution_equilibria       0
  -n_solution                -999
  # Exchange workspace variables #
  -totals
